<?xml version="1.0" encoding="UTF-8"?>

<!-- generated on 2026-03-04 02:05:04.279022 by Eclipse SUMO osmWebWizard.py v1_25_0+0000-ac6c5a6752d
  options: 
-->

<additional xmlns:xsi="http://www.w3.org/2001/XMLSchema-instance" xsi:noNamespaceSchemaLocation="http://sumo.dlr.de/xsd/additional_file.xsd">
   <edgeData id="wizard_example" period="3600" file="edgeData.xml"/>
</additional>
